Circuit: * C:\Users\Alex\Documents\Elektronik Projekte Privat\Quick Starter\Documentation\Quick-Starter\Examples\LTSpice_Example_001.asc

Direct Newton iteration for .op point succeeded.

Date: Wed May 27 21:42:58 2015
Total elapsed time: 0.069 seconds.

tnom = 27
temp = 27
method = modified trap
totiter = 5306
traniter = 5277
tranpoints = 1984
accept = 1733
rejected = 251
matrix size = 11
fillins = 0
solver = Normal
Matrix Compiler1: 538 Bytes object code size  1.9/1.8/[1.6]
Matrix Compiler2: off  [1.7]/1.8/1.9


