Circuit: * C:\Users\Alex\Documents\Elektronik Projekte Privat\Quick Starter\Documentation\Quick-Starter\Examples\LTSpice_Example_002.asc

Early termination of direct N-R iteration.
Direct Newton iteration failed to find .op point.  (Use ".option noopiter" to skip.)
Starting Gmin stepping
Gmin = 10
vernier = 0.5
vernier = 0.25
vernier = 0.125
vernier = 0.0625
Gmin = 8.61953
vernier = 0.03125
vernier = 0.015625
vernier = 0.0078125
vernier = 0.00390625
Gmin = 8.47038
vernier = 0.00195313
vernier = 0.000976563
vernier = 0.000488281
Gmin = 0
Gmin stepping failed

Starting source stepping with srcstepmethod=0
Source Step = 3.0303%
Source Step = 33.3333%
Source Step = 63.6364%
Source Step = 93.9394%
Source stepping succeeded in finding the operating point.


Date: Wed May 27 21:42:11 2015
Total elapsed time: 2.204 seconds.

tnom = 27
temp = 27
method = modified trap
totiter = 5657
traniter = 3954
tranpoints = 1487
accept = 1361
rejected = 126
matrix size = 94
fillins = 723
solver = Normal
Thread vector: 27.3/17.9[2] 13.5/8.5[2] 8.0/6.9[2] 2.8/3.0[1]  2592/500
Matrix Compiler1: 95,2 KB object code size  27.3/22.7/[17.1]
Matrix Compiler2: 19,8 KB object code size  6.2/6.8/[3.3]


